Version 4
SHEET 1 1764 680
WIRE -176 -448 -432 -448
WIRE -80 -448 -176 -448
WIRE 16 -448 -80 -448
WIRE 128 -448 16 -448
WIRE 160 -448 128 -448
WIRE 528 -448 160 -448
WIRE -80 -384 -80 -448
WIRE 128 -384 128 -448
WIRE -176 -336 -176 -448
WIRE -80 -336 -176 -336
WIRE 0 -336 -32 -336
WIRE 80 -336 0 -336
WIRE 160 -336 160 -448
WIRE 160 -336 128 -336
WIRE 528 -320 528 -368
WIRE -80 -256 -80 -288
WIRE 0 -256 0 -336
WIRE 0 -256 -80 -256
WIRE 128 -208 128 -288
WIRE 160 -208 128 -208
WIRE 224 -208 160 -208
WIRE 336 -208 288 -208
WIRE -432 -192 -432 -448
WIRE 336 -176 336 -208
WIRE -80 -96 -80 -256
WIRE 128 -96 128 -208
WIRE -176 -48 -208 -48
WIRE -128 -48 -176 -48
WIRE 64 -48 -80 -48
WIRE 128 -48 64 -48
WIRE 208 -48 176 -48
WIRE 240 -48 208 -48
WIRE -784 -16 -880 -16
WIRE -752 -16 -784 -16
WIRE -880 16 -880 -16
WIRE -992 32 -1152 32
WIRE -928 32 -992 32
WIRE -80 32 -80 0
WIRE -16 32 -80 32
WIRE 32 32 -16 32
WIRE 128 32 128 0
WIRE 128 32 32 32
WIRE -432 64 -432 -112
WIRE -336 64 -432 64
WIRE -928 80 -960 80
WIRE -1152 96 -1152 32
WIRE -432 112 -432 64
WIRE 32 112 32 32
WIRE -1152 128 -1152 96
WIRE -880 128 -880 96
WIRE -656 128 -880 128
WIRE -432 160 -464 160
WIRE -336 160 -336 64
WIRE -336 160 -384 160
WIRE -16 160 -336 160
WIRE 64 160 64 -48
WIRE 64 160 32 160
WIRE -880 176 -880 128
WIRE -992 192 -992 32
WIRE -928 192 -992 192
WIRE -656 192 -656 128
WIRE -960 240 -960 80
WIRE -928 240 -960 240
WIRE -1152 256 -1152 208
WIRE -960 288 -960 240
WIRE -880 288 -880 256
WIRE -784 288 -880 288
WIRE -752 288 -784 288
WIRE -464 288 -464 160
WIRE -432 288 -432 208
WIRE -432 288 -464 288
WIRE 32 288 32 208
WIRE 32 288 -432 288
WIRE 64 288 64 160
WIRE 64 288 32 288
WIRE -656 320 -656 272
WIRE 32 320 32 288
FLAG 32 320 0
FLAG 528 -320 0
FLAG -1152 96 In
FLAG -176 -48 Ip
FLAG -1152 256 0
FLAG -960 288 0
FLAG -656 320 0
FLAG -784 -16 Ip
FLAG -784 288 Im
FLAG -16 32 Sin
FLAG 208 -48 Im
FLAG 16 -448 VDD
FLAG 336 -176 0
FLAG 160 -208 Out
SYMBOL voltage 528 -464 R0
WINDOW 123 0 0 Left 2
WINDOW 39 0 0 Left 2
SYMATTR InstName VDD
SYMATTR Value 3V
SYMBOL nmosb -128 -96 R0
WINDOW 0 62 -27 Left 2
WINDOW 3 59 2 Left 2
SYMATTR InstName M1
SYMATTR Value n018
SYMATTR Value2 l=1u w=54.14u ad=10.82p as=10.82p pd=108.68u ps=108.68u m=1
SYMBOL nmosb -16 112 R0
WINDOW 0 91 -4 Left 2
WINDOW 3 -51 77 Left 2
SYMATTR InstName Mbias1
SYMATTR Value n018
SYMATTR Value2 l=1u w=115.5u ad=23.1p as=23.1p pd=231.4 ps=231.4u m=1
SYMBOL cap 288 -192 M270
WINDOW 0 32 32 VTop 2
WINDOW 3 0 32 VBottom 2
SYMATTR InstName C1
SYMATTR Value 6p
SYMBOL voltage -1152 112 R0
WINDOW 123 24 132 Left 2
WINDOW 39 0 0 Left 2
SYMATTR Value2 AC 1
SYMATTR InstName Vin
SYMATTR Value SINE(0 10m 1k)
SYMBOL nmosb 176 -96 M0
WINDOW 0 66 -23 Left 2
WINDOW 3 59 6 Left 2
SYMATTR InstName M2
SYMATTR Value n018
SYMATTR Value2 l=1u w=54.14u ad=10.82p as=10.82p pd=108.68u ps=108.68u m=1
SYMBOL nmosb -384 112 M0
WINDOW 0 68 -18 Left 2
WINDOW 3 -49 86 Left 2
SYMATTR InstName Mbias2
SYMATTR Value n018
SYMATTR Value2 l=1u w=2.16u ad=0.43p as=0.43p pd=4.72u ps=4.72u m=1
SYMBOL current -432 -192 R0
WINDOW 123 0 0 Left 2
WINDOW 39 0 0 Left 2
SYMATTR InstName I1
SYMATTR Value 15µ
SYMBOL e -880 0 R0
SYMATTR InstName E1
SYMATTR Value 0.5
SYMBOL e -880 160 R0
SYMATTR InstName E2
SYMATTR Value 0.5
SYMBOL voltage -656 176 R0
WINDOW 123 24 132 Left 2
WINDOW 39 0 0 Left 2
SYMATTR InstName VCM
SYMATTR Value 946m
SYMBOL pmosb 80 -384 R0
WINDOW 0 94 31 Left 2
WINDOW 3 95 57 Left 2
SYMATTR InstName M4
SYMATTR Value p018
SYMATTR Value2 l=1u w=183.86u ad=36.77p as=36.77p pd=368.12u ps=368.12u m=1
SYMBOL pmosbmodificat -128 -384 R0
WINDOW 0 3 62 Left 2
WINDOW 3 -15 86 Left 2
SYMATTR InstName M3
SYMATTR Value p018
SYMATTR Value2 l=1u w=183.86u ad=36.77p as=36.77p pd=368.12u ps=368.12u m=1
TEXT -872 -320 Left 2 !.lib 180nmL7.lib
TEXT -1200 344 Left 2 ;;op
TEXT -1200 392 Left 2 !.ac dec 100 100 100G
